version 2
1
9
.tran 1m 40{return}.kicad adjustpaths{return}.save all{return}.probe alli
1
1
V(out)
 
